Phenol
 OpenBabel08022110173D
108-95-2 Copyright (C) 2021 ACS
 13 13  0  0  0  0  0  0  0  0999 V2000
    2.2592   -0.0796    0.0178 O   0  0  0  0  0  0  0  0  0  0  0  0
    0.2340    1.2128    0.0112 C   0  0  0  0  0  0  0  0  0  0  0  0
    0.8970   -0.0113    0.0138 C   0  0  0  0  0  0  0  0  0  0  0  0
   -1.1616    1.2361    0.0004 C   0  0  0  0  0  0  0  0  0  0  0  0
    0.1873   -1.2070    0.0098 C   0  0  0  0  0  0  0  0  0  0  0  0
   -1.8817    0.0403   -0.0081 C   0  0  0  0  0  0  0  0  0  0  0  0
   -1.2073   -1.1812   -0.0015 C   0  0  0  0  0  0  0  0  0  0  0  0
    2.6120    0.8243   -0.0107 H   0  0  0  0  0  0  0  0  0  0  0  0
    0.7809    2.1498    0.0191 H   0  0  0  0  0  0  0  0  0  0  0  0
   -1.6895    2.1862   -0.0019 H   0  0  0  0  0  0  0  0  0  0  0  0
    0.7179   -2.1545    0.0153 H   0  0  0  0  0  0  0  0  0  0  0  0
   -2.9685    0.0601   -0.0195 H   0  0  0  0  0  0  0  0  0  0  0  0
   -1.7666   -2.1129   -0.0061 H   0  0  0  0  0  0  0  0  0  0  0  0
  1  3  1  0  0  0  0
  1  8  1  0  0  0  0
  2  3  2  0  0  0  0
  2  4  1  0  0  0  0
  2  9  1  0  0  0  0
  3  5  1  0  0  0  0
  4  6  2  0  0  0  0
  4 10  1  0  0  0  0
  5  7  2  0  0  0  0
  5 11  1  0  0  0  0
  6  7  1  0  0  0  0
  6 12  1  0  0  0  0
  7 13  1  0  0  0  0
M  END
$$$$
