Phenol
 OpenBabel06142111263D
108-95-2 Copyright (C) 2021 ACS
 13 13  0  0  0  0  0  0  0  0999 V2000
    2.2592   -0.0796    0.0178 O   0  0  0  0  0  0  0  0  0  0  0  0
    0.2340    1.2128    0.0112 C   0  0  0  0  0  0  0  0  0  0  0  0
    0.8970   -0.0113    0.0138 C   0  0  0  0  0  0  0  0  0  0  0  0
   -1.1616    1.2361    0.0004 C   0  0  0  0  0  0  0  0  0  0  0  0
    0.1873   -1.2070    0.0098 C   0  0  0  0  0  0  0  0  0  0  0  0
   -1.8817    0.0403   -0.0081 C   0  0  0  0  0  0  0  0  0  0  0  0
   -1.2073   -1.1812   -0.0015 C   0  0  0  0  0  0  0  0  0  0  0  0
    2.6120    0.8243   -0.0107 H   0  0  0  0  0  0  0  0  0  0  0  0
    0.7809    2.1498    0.0191 H   0  0  0  0  0  0  0  0  0  0  0  0
   -1.6895    2.1862   -0.0019 H   0  0  0  0  0  0  0  0  0  0  0  0
    0.7179   -2.1545    0.0153 H   0  0  0  0  0  0  0  0  0  0  0  0
   -2.9685    0.0601   -0.0195 H   0  0  0  0  0  0  0  0  0  0  0  0
   -1.7666   -2.1129   -0.0061 H   0  0  0  0  0  0  0  0  0  0  0  0
  1  3  1  0  0  0  0
  1  8  1  0  0  0  0
  2  3  2  0  0  0  0
  2  4  1  0  0  0  0
  2  9  1  0  0  0  0
  3  5  1  0  0  0  0
  4  6  2  0  0  0  0
  4 10  1  0  0  0  0
  5  7  2  0  0  0  0
  5 11  1  0  0  0  0
  6  7  1  0  0  0  0
  6 12  1  0  0  0  0
  7 13  1  0  0  0  0
M  END
$$$$
﻿1H-Pyrrole
 OpenBabel06142111263D
109-97-7 Copyright (C) 2021 ACS
 10 10  0  0  0  0  0  0  0  0999 V2000
    1.0069    0.6988   -0.0002 C   0  0  0  0  0  0  0  0  0  0  0  0
    0.9942   -0.7166   -0.0002 C   0  0  0  0  0  0  0  0  0  0  0  0
   -0.3038    1.1210    0.0021 C   0  0  0  0  0  0  0  0  0  0  0  0
   -0.3240   -1.1151    0.0019 C   0  0  0  0  0  0  0  0  0  0  0  0
   -1.1065    0.0101    0.0002 N   0  0  0  0  0  0  0  0  0  0  0  0
    1.8784    1.3408   -0.0008 H   0  0  0  0  0  0  0  0  0  0  0  0
    1.8539   -1.3739   -0.0010 H   0  0  0  0  0  0  0  0  0  0  0  0
   -0.7330    2.1138    0.0042 H   0  0  0  0  0  0  0  0  0  0  0  0
   -0.7711   -2.1002    0.0036 H   0  0  0  0  0  0  0  0  0  0  0  0
   -2.1182    0.0193   -0.0013 H   0  0  0  0  0  0  0  0  0  0  0  0
  1  2  1  0  0  0  0
  1  3  2  0  0  0  0
  1  6  1  0  0  0  0
  2  4  2  0  0  0  0
  2  7  1  0  0  0  0
  3  5  1  0  0  0  0
  3  8  1  0  0  0  0
  4  5  1  0  0  0  0
  4  9  1  0  0  0  0
  5 10  1  0  0  0  0
M  END
$$$$
﻿Thiophene
 OpenBabel06142111263D
110-02-1 Copyright (C) 2021 ACS
  9  9  0  0  0  0  0  0  0  0999 V2000
    1.3871    0.7170    0.0024 C   0  0  0  0  0  0  0  0  0  0  0  0
    1.3913   -0.7081    0.0024 C   0  0  0  0  0  0  0  0  0  0  0  0
    0.1083    1.2299   -0.0039 C   0  0  0  0  0  0  0  0  0  0  0  0
    0.1157   -1.2284   -0.0048 C   0  0  0  0  0  0  0  0  0  0  0  0
   -1.0791   -0.0027   -0.0084 S   0  0  0  0  0  0  0  0  0  0  0  0
    2.2765    1.3351    0.0063 H   0  0  0  0  0  0  0  0  0  0  0  0
    2.2843   -1.3210    0.0062 H   0  0  0  0  0  0  0  0  0  0  0  0
   -0.1889    2.2695   -0.0062 H   0  0  0  0  0  0  0  0  0  0  0  0
   -0.1756   -2.2698   -0.0076 H   0  0  0  0  0  0  0  0  0  0  0  0
  1  2  1  0  0  0  0
  1  3  2  0  0  0  0
  1  6  1  0  0  0  0
  2  4  2  0  0  0  0
  2  7  1  0  0  0  0
  3  5  1  0  0  0  0
  3  8  1  0  0  0  0
  4  5  1  0  0  0  0
  4  9  1  0  0  0  0
M  END
$$$$
﻿Pyridine
 OpenBabel06142111263D
110-86-1 Copyright (C) 2021 ACS
 11 11  0  0  0  0  0  0  0  0999 V2000
    1.4377    0.0527   -0.0005 C   0  0  0  0  0  0  0  0  0  0  0  0
    0.6919    1.2267    0.0010 C   0  0  0  0  0  0  0  0  0  0  0  0
    0.7792   -1.1726    0.0012 C   0  0  0  0  0  0  0  0  0  0  0  0
   -0.6903    1.1254    0.0032 C   0  0  0  0  0  0  0  0  0  0  0  0
   -0.6067   -1.1720    0.0053 C   0  0  0  0  0  0  0  0  0  0  0  0
   -1.3576   -0.0490    0.0057 N   0  0  0  0  0  0  0  0  0  0  0  0
    2.5232    0.0921   -0.0030 H   0  0  0  0  0  0  0  0  0  0  0  0
    1.1749    2.1972    0.0002 H   0  0  0  0  0  0  0  0  0  0  0  0
    1.3313   -2.1053   -0.0003 H   0  0  0  0  0  0  0  0  0  0  0  0
   -1.3163    2.0130    0.0027 H   0  0  0  0  0  0  0  0  0  0  0  0
   -1.1666   -2.1026    0.0083 H   0  0  0  0  0  0  0  0  0  0  0  0
  1  2  1  0  0  0  0
  1  3  2  0  0  0  0
  1  7  1  0  0  0  0
  2  4  2  0  0  0  0
  2  8  1  0  0  0  0
  3  5  1  0  0  0  0
  3  9  1  0  0  0  0
  4  6  1  0  0  0  0
  4 10  1  0  0  0  0
  5  6  2  0  0  0  0
  5 11  1  0  0  0  0
M  END
$$$$
﻿Anthracene
 OpenBabel06142111263D
120-12-7 Copyright (C) 2021 ACS
 24 26  0  0  0  0  0  0  0  0999 V2000
    1.2252   -0.7052   -0.0020 C   0  0  0  0  0  0  0  0  0  0  0  0
    1.2269    0.7063   -0.0006 C   0  0  0  0  0  0  0  0  0  0  0  0
    0.0005   -1.3920    0.0025 C   0  0  0  0  0  0  0  0  0  0  0  0
    2.4496   -1.3936   -0.0087 C   0  0  0  0  0  0  0  0  0  0  0  0
    0.0019    1.3945    0.0011 C   0  0  0  0  0  0  0  0  0  0  0  0
    2.4530    1.3908    0.0010 C   0  0  0  0  0  0  0  0  0  0  0  0
   -1.2238   -0.7037    0.0034 C   0  0  0  0  0  0  0  0  0  0  0  0
    3.6596   -0.6991   -0.0023 C   0  0  0  0  0  0  0  0  0  0  0  0
   -1.2240    0.7081    0.0014 C   0  0  0  0  0  0  0  0  0  0  0  0
    3.6615    0.6926    0.0050 C   0  0  0  0  0  0  0  0  0  0  0  0
   -2.4492   -1.3909    0.0038 C   0  0  0  0  0  0  0  0  0  0  0  0
   -2.4495    1.3948   -0.0001 C   0  0  0  0  0  0  0  0  0  0  0  0
   -3.6589   -0.6946   -0.0002 C   0  0  0  0  0  0  0  0  0  0  0  0
   -3.6588    0.6976   -0.0032 C   0  0  0  0  0  0  0  0  0  0  0  0
   -0.0008   -2.4801    0.0073 H   0  0  0  0  0  0  0  0  0  0  0  0
    2.4683   -2.4814   -0.0188 H   0  0  0  0  0  0  0  0  0  0  0  0
    0.0028    2.4830    0.0021 H   0  0  0  0  0  0  0  0  0  0  0  0
    2.4754    2.4788    0.0000 H   0  0  0  0  0  0  0  0  0  0  0  0
    4.5993   -1.2451   -0.0026 H   0  0  0  0  0  0  0  0  0  0  0  0
    4.6029    1.2356    0.0134 H   0  0  0  0  0  0  0  0  0  0  0  0
   -2.4697   -2.4778    0.0062 H   0  0  0  0  0  0  0  0  0  0  0  0
   -2.4703    2.4817   -0.0014 H   0  0  0  0  0  0  0  0  0  0  0  0
   -4.5990   -1.2390   -0.0027 H   0  0  0  0  0  0  0  0  0  0  0  0
   -4.5997    1.2420   -0.0077 H   0  0  0  0  0  0  0  0  0  0  0  0
  1  2  2  0  0  0  0
  1  3  1  0  0  0  0
  1  4  1  0  0  0  0
  2  5  1  0  0  0  0
  2  6  1  0  0  0  0
  3  7  2  0  0  0  0
  3 15  1  0  0  0  0
  4  8  2  0  0  0  0
  4 16  1  0  0  0  0
  5  9  2  0  0  0  0
  5 17  1  0  0  0  0
  6 10  2  0  0  0  0
  6 18  1  0  0  0  0
  7  9  1  0  0  0  0
  7 11  1  0  0  0  0
  8 10  1  0  0  0  0
  8 19  1  0  0  0  0
  9 12  1  0  0  0  0
 10 20  1  0  0  0  0
 11 13  2  0  0  0  0
 11 21  1  0  0  0  0
 12 14  2  0  0  0  0
 12 22  1  0  0  0  0
 13 14  1  0  0  0  0
 13 23  1  0  0  0  0
 14 24  1  0  0  0  0
M  END
$$$$
﻿Indole
 OpenBabel06142111263D
120-72-9 Copyright (C) 2021 ACS
 16 17  0  0  0  0  0  0  0  0999 V2000
   -0.2400   -0.7551   -0.0064 C   0  0  0  0  0  0  0  0  0  0  0  0
   -0.2506    0.6402   -0.0131 C   0  0  0  0  0  0  0  0  0  0  0  0
   -1.5956   -1.1845   -0.0122 C   0  0  0  0  0  0  0  0  0  0  0  0
    0.9997   -1.4231    0.0004 C   0  0  0  0  0  0  0  0  0  0  0  0
   -1.5699    1.0337   -0.0176 N   0  0  0  0  0  0  0  0  0  0  0  0
    0.9220    1.4046   -0.0163 C   0  0  0  0  0  0  0  0  0  0  0  0
   -2.3919   -0.0619   -0.0252 C   0  0  0  0  0  0  0  0  0  0  0  0
    2.1820   -0.6738   -0.0086 C   0  0  0  0  0  0  0  0  0  0  0  0
    2.1407    0.7191   -0.0179 C   0  0  0  0  0  0  0  0  0  0  0  0
   -1.9474   -2.2078   -0.0128 H   0  0  0  0  0  0  0  0  0  0  0  0
    1.0397   -2.5082    0.0081 H   0  0  0  0  0  0  0  0  0  0  0  0
   -1.8797    1.9957   -0.0210 H   0  0  0  0  0  0  0  0  0  0  0  0
    0.8939    2.4893   -0.0217 H   0  0  0  0  0  0  0  0  0  0  0  0
   -3.4673    0.0511   -0.0388 H   0  0  0  0  0  0  0  0  0  0  0  0
    3.1409   -1.1860   -0.0100 H   0  0  0  0  0  0  0  0  0  0  0  0
    3.0707    1.2829   -0.0271 H   0  0  0  0  0  0  0  0  0  0  0  0
  1  2  1  0  0  0  0
  1  3  1  0  0  0  0
  1  4  2  0  0  0  0
  2  5  1  0  0  0  0
  2  6  2  0  0  0  0
  3  7  2  0  0  0  0
  3 10  1  0  0  0  0
  4  8  1  0  0  0  0
  4 11  1  0  0  0  0
  5  7  1  0  0  0  0
  5 12  1  0  0  0  0
  6  9  1  0  0  0  0
  6 13  1  0  0  0  0
  7 14  1  0  0  0  0
  8  9  2  0  0  0  0
  8 15  1  0  0  0  0
  9 16  1  0  0  0  0
M  END
$$$$
﻿Purine
 OpenBabel06142111263D
120-73-0 Copyright (C) 2021 ACS
 13 14  0  0  0  0  0  0  0  0999 V2000
   -0.2246   -0.7503   -0.0030 C   0  0  0  0  0  0  0  0  0  0  0  0
   -0.2718    0.6328   -0.0042 C   0  0  0  0  0  0  0  0  0  0  0  0
   -1.5331   -1.1436   -0.0095 N   0  0  0  0  0  0  0  0  0  0  0  0
    0.9867   -1.4030    0.0004 C   0  0  0  0  0  0  0  0  0  0  0  0
   -1.5662    1.0780   -0.0116 N   0  0  0  0  0  0  0  0  0  0  0  0
    0.8256    1.4102   -0.0034 N   0  0  0  0  0  0  0  0  0  0  0  0
   -2.3017   -0.0109   -0.0195 C   0  0  0  0  0  0  0  0  0  0  0  0
    2.1033   -0.6462   -0.0022 N   0  0  0  0  0  0  0  0  0  0  0  0
    1.9611    0.6985   -0.0052 C   0  0  0  0  0  0  0  0  0  0  0  0
   -1.8779   -2.0933   -0.0135 H   0  0  0  0  0  0  0  0  0  0  0  0
    1.1069   -2.4783    0.0014 H   0  0  0  0  0  0  0  0  0  0  0  0
   -3.3836   -0.0433   -0.0338 H   0  0  0  0  0  0  0  0  0  0  0  0
    2.8829    1.2728   -0.0117 H   0  0  0  0  0  0  0  0  0  0  0  0
  1  2  1  0  0  0  0
  1  3  1  0  0  0  0
  1  4  2  0  0  0  0
  2  5  1  0  0  0  0
  2  6  2  0  0  0  0
  3  7  1  0  0  0  0
  3 10  1  0  0  0  0
  4  8  1  0  0  0  0
  4 11  1  0  0  0  0
  5  7  2  0  0  0  0
  6  9  1  0  0  0  0
  7 12  1  0  0  0  0
  8  9  2  0  0  0  0
  9 13  1  0  0  0  0
M  END
$$$$
﻿1H-Pyrrolo[2,3-c]pyridine
 OpenBabel06142111263D
271-29-4 Copyright (C) 2021 ACS
 15 16  0  0  0  0  0  0  0  0999 V2000
   -0.2965   -0.7598    0.0036 C   0  0  0  0  0  0  0  0  0  0  0  0
   -0.2488    0.6336    0.0004 C   0  0  0  0  0  0  0  0  0  0  0  0
   -1.6694   -1.1310    0.0071 C   0  0  0  0  0  0  0  0  0  0  0  0
    0.9105   -1.4701    0.0041 C   0  0  0  0  0  0  0  0  0  0  0  0
   -1.5483    1.0862    0.0016 N   0  0  0  0  0  0  0  0  0  0  0  0
    0.9524    1.3306   -0.0029 C   0  0  0  0  0  0  0  0  0  0  0  0
   -2.4161    0.0256    0.0066 C   0  0  0  0  0  0  0  0  0  0  0  0
    2.0726   -0.7121    0.0056 C   0  0  0  0  0  0  0  0  0  0  0  0
    2.1148    0.6389    0.0015 N   0  0  0  0  0  0  0  0  0  0  0  0
   -2.0665   -2.1377    0.0111 H   0  0  0  0  0  0  0  0  0  0  0  0
    0.9428   -2.5524    0.0050 H   0  0  0  0  0  0  0  0  0  0  0  0
   -1.8187    2.0602    0.0014 H   0  0  0  0  0  0  0  0  0  0  0  0
    1.0211    2.4112   -0.0076 H   0  0  0  0  0  0  0  0  0  0  0  0
   -3.4863    0.1846    0.0097 H   0  0  0  0  0  0  0  0  0  0  0  0
    3.0450   -1.1978    0.0112 H   0  0  0  0  0  0  0  0  0  0  0  0
  1  2  1  0  0  0  0
  1  3  1  0  0  0  0
  1  4  2  0  0  0  0
  2  5  1  0  0  0  0
  2  6  2  0  0  0  0
  3  7  2  0  0  0  0
  3 10  1  0  0  0  0
  4  8  1  0  0  0  0
  4 11  1  0  0  0  0
  5  7  1  0  0  0  0
  5 12  1  0  0  0  0
  6  9  1  0  0  0  0
  6 13  1  0  0  0  0
  7 14  1  0  0  0  0
  8  9  2  0  0  0  0
  8 15  1  0  0  0  0
M  END
$$$$
﻿1H-Pyrrolo[3,2-c]pyridine
 OpenBabel06142111263D
271-34-1 Copyright (C) 2021 ACS
 15 16  0  0  0  0  0  0  0  0999 V2000
    0.2497    0.7241   -0.0066 C   0  0  0  0  0  0  0  0  0  0  0  0
    0.3005   -0.6705   -0.0059 C   0  0  0  0  0  0  0  0  0  0  0  0
    1.5945    1.1894   -0.0057 C   0  0  0  0  0  0  0  0  0  0  0  0
   -1.0035    1.3478   -0.0071 C   0  0  0  0  0  0  0  0  0  0  0  0
    1.6288   -1.0312   -0.0037 N   0  0  0  0  0  0  0  0  0  0  0  0
   -0.8526   -1.4518   -0.0057 C   0  0  0  0  0  0  0  0  0  0  0  0
    2.4211    0.0882   -0.0021 C   0  0  0  0  0  0  0  0  0  0  0  0
   -2.1416    0.6092    0.0017 N   0  0  0  0  0  0  0  0  0  0  0  0
   -2.0426   -0.7387    0.0035 C   0  0  0  0  0  0  0  0  0  0  0  0
    1.9200    2.2215   -0.0049 H   0  0  0  0  0  0  0  0  0  0  0  0
   -1.1271    2.4244   -0.0120 H   0  0  0  0  0  0  0  0  0  0  0  0
    1.9669   -1.9835    0.0018 H   0  0  0  0  0  0  0  0  0  0  0  0
   -0.8319   -2.5335   -0.0090 H   0  0  0  0  0  0  0  0  0  0  0  0
    3.4990    0.0043    0.0019 H   0  0  0  0  0  0  0  0  0  0  0  0
   -2.9954   -1.2623    0.0141 H   0  0  0  0  0  0  0  0  0  0  0  0
  1  2  1  0  0  0  0
  1  3  1  0  0  0  0
  1  4  2  0  0  0  0
  2  5  1  0  0  0  0
  2  6  2  0  0  0  0
  3  7  2  0  0  0  0
  3 10  1  0  0  0  0
  4  8  1  0  0  0  0
  4 11  1  0  0  0  0
  5  7  1  0  0  0  0
  5 12  1  0  0  0  0
  6  9  1  0  0  0  0
  6 13  1  0  0  0  0
  7 14  1  0  0  0  0
  8  9  2  0  0  0  0
  9 15  1  0  0  0  0
M  END
$$$$
﻿Indazole
 OpenBabel06142111263D
271-44-3 Copyright (C) 2021 ACS
 15 16  0  0  0  0  0  0  0  0999 V2000
   -0.1835   -0.7388    0.0018 C   0  0  0  0  0  0  0  0  0  0  0  0
   -0.1759    0.6514    0.0017 C   0  0  0  0  0  0  0  0  0  0  0  0
   -1.5531   -1.0841    0.0005 C   0  0  0  0  0  0  0  0  0  0  0  0
    1.0381   -1.4329    0.0022 C   0  0  0  0  0  0  0  0  0  0  0  0
   -1.4961    1.0184    0.0051 N   0  0  0  0  0  0  0  0  0  0  0  0
    1.0009    1.4066   -0.0008 C   0  0  0  0  0  0  0  0  0  0  0  0
   -2.3562   -0.0165    0.0029 N   0  0  0  0  0  0  0  0  0  0  0  0
    2.2295   -0.6964    0.0000 C   0  0  0  0  0  0  0  0  0  0  0  0
    2.2082    0.6994   -0.0024 C   0  0  0  0  0  0  0  0  0  0  0  0
   -1.9941   -2.0722   -0.0026 H   0  0  0  0  0  0  0  0  0  0  0  0
    1.0621   -2.5184    0.0040 H   0  0  0  0  0  0  0  0  0  0  0  0
   -1.8753    1.9577    0.0093 H   0  0  0  0  0  0  0  0  0  0  0  0
    0.9866    2.4913   -0.0024 H   0  0  0  0  0  0  0  0  0  0  0  0
    3.1826   -1.2204   -0.0002 H   0  0  0  0  0  0  0  0  0  0  0  0
    3.1480    1.2481   -0.0054 H   0  0  0  0  0  0  0  0  0  0  0  0
  1  2  1  0  0  0  0
  1  3  1  0  0  0  0
  1  4  2  0  0  0  0
  2  5  1  0  0  0  0
  2  6  2  0  0  0  0
  3  7  2  0  0  0  0
  3 10  1  0  0  0  0
  4  8  1  0  0  0  0
  4 11  1  0  0  0  0
  5  7  1  0  0  0  0
  5 12  1  0  0  0  0
  6  9  1  0  0  0  0
  6 13  1  0  0  0  0
  8  9  2  0  0  0  0
  8 14  1  0  0  0  0
  9 15  1  0  0  0  0
M  END
$$$$
﻿1H-Pyrrolo[2,3-b]pyridine
 OpenBabel06142111263D
271-63-6 Copyright (C) 2021 ACS
 15 16  0  0  0  0  0  0  0  0999 V2000
    0.2518   -0.7953    0.0025 C   0  0  0  0  0  0  0  0  0  0  0  0
    0.2087    0.5944    0.0031 C   0  0  0  0  0  0  0  0  0  0  0  0
    1.6249   -1.1642    0.0021 C   0  0  0  0  0  0  0  0  0  0  0  0
   -0.9735   -1.4794    0.0059 C   0  0  0  0  0  0  0  0  0  0  0  0
    1.4966    1.0559    0.0118 N   0  0  0  0  0  0  0  0  0  0  0  0
   -0.8828    1.3819    0.0015 N   0  0  0  0  0  0  0  0  0  0  0  0
    2.3699   -0.0029    0.0185 C   0  0  0  0  0  0  0  0  0  0  0  0
   -2.1398   -0.7119    0.0114 C   0  0  0  0  0  0  0  0  0  0  0  0
   -2.0365    0.6740    0.0062 C   0  0  0  0  0  0  0  0  0  0  0  0
    2.0247   -2.1696   -0.0008 H   0  0  0  0  0  0  0  0  0  0  0  0
   -1.0151   -2.5633    0.0078 H   0  0  0  0  0  0  0  0  0  0  0  0
    1.7370    2.0357    0.0196 H   0  0  0  0  0  0  0  0  0  0  0  0
    3.4388    0.1620    0.0346 H   0  0  0  0  0  0  0  0  0  0  0  0
   -3.1141   -1.1885    0.0210 H   0  0  0  0  0  0  0  0  0  0  0  0
   -2.9364    1.2851    0.0079 H   0  0  0  0  0  0  0  0  0  0  0  0
  1  2  1  0  0  0  0
  1  3  1  0  0  0  0
  1  4  2  0  0  0  0
  2  5  1  0  0  0  0
  2  6  2  0  0  0  0
  3  7  2  0  0  0  0
  3 10  1  0  0  0  0
  4  8  1  0  0  0  0
  4 11  1  0  0  0  0
  5  7  1  0  0  0  0
  5 12  1  0  0  0  0
  6  9  1  0  0  0  0
  7 13  1  0  0  0  0
  8  9  2  0  0  0  0
  8 14  1  0  0  0  0
  9 15  1  0  0  0  0
M  END
$$$$
﻿1H-Pyrrolo[3,2-b]pyridine
 OpenBabel06142111263D
272-49-1 Copyright (C) 2021 ACS
 15 16  0  0  0  0  0  0  0  0999 V2000
   -0.1950    0.6941   -0.0021 C   0  0  0  0  0  0  0  0  0  0  0  0
   -0.2588   -0.6976   -0.0012 C   0  0  0  0  0  0  0  0  0  0  0  0
   -1.5217    1.1848   -0.0015 C   0  0  0  0  0  0  0  0  0  0  0  0
    0.9709    1.3836   -0.0042 N   0  0  0  0  0  0  0  0  0  0  0  0
   -1.5910   -1.0377   -0.0015 N   0  0  0  0  0  0  0  0  0  0  0  0
    0.8974   -1.4775   -0.0007 C   0  0  0  0  0  0  0  0  0  0  0  0
   -2.3661    0.0953   -0.0039 C   0  0  0  0  0  0  0  0  0  0  0  0
    2.0795    0.6129   -0.0063 C   0  0  0  0  0  0  0  0  0  0  0  0
    2.1004   -0.7760   -0.0042 C   0  0  0  0  0  0  0  0  0  0  0  0
   -1.8168    2.2245   -0.0017 H   0  0  0  0  0  0  0  0  0  0  0  0
   -1.9438   -1.9850   -0.0020 H   0  0  0  0  0  0  0  0  0  0  0  0
    0.8669   -2.5605    0.0007 H   0  0  0  0  0  0  0  0  0  0  0  0
   -3.4460    0.0291   -0.0067 H   0  0  0  0  0  0  0  0  0  0  0  0
    3.0129    1.1711   -0.0104 H   0  0  0  0  0  0  0  0  0  0  0  0
    3.0474   -1.3057   -0.0058 H   0  0  0  0  0  0  0  0  0  0  0  0
  1  2  1  0  0  0  0
  1  3  1  0  0  0  0
  1  4  2  0  0  0  0
  2  5  1  0  0  0  0
  2  6  2  0  0  0  0
  3  7  2  0  0  0  0
  3 10  1  0  0  0  0
  4  8  1  0  0  0  0
  5  7  1  0  0  0  0
  5 11  1  0  0  0  0
  6  9  1  0  0  0  0
  6 12  1  0  0  0  0
  7 13  1  0  0  0  0
  8  9  2  0  0  0  0
  8 14  1  0  0  0  0
  9 15  1  0  0  0  0
M  END
$$$$
﻿Imidazole
 OpenBabel06142111263D
288-32-4 Copyright (C) 2021 ACS
  9  9  0  0  0  0  0  0  0  0999 V2000
    0.9504   -0.7647    0.0029 C   0  0  0  0  0  0  0  0  0  0  0  0
   -0.3850   -1.0914    0.0000 C   0  0  0  0  0  0  0  0  0  0  0  0
    0.9806    0.6023    0.0027 N   0  0  0  0  0  0  0  0  0  0  0  0
   -1.1608    0.0390    0.0009 N   0  0  0  0  0  0  0  0  0  0  0  0
   -0.3127    1.0414    0.0037 C   0  0  0  0  0  0  0  0  0  0  0  0
    1.8485   -1.3650    0.0047 H   0  0  0  0  0  0  0  0  0  0  0  0
   -0.8295   -2.0783   -0.0019 H   0  0  0  0  0  0  0  0  0  0  0  0
    1.8048    1.1874    0.0026 H   0  0  0  0  0  0  0  0  0  0  0  0
   -0.5718    2.0918    0.0062 H   0  0  0  0  0  0  0  0  0  0  0  0
  1  2  2  0  0  0  0
  1  3  1  0  0  0  0
  1  6  1  0  0  0  0
  2  4  1  0  0  0  0
  2  7  1  0  0  0  0
  3  5  1  0  0  0  0
  3  8  1  0  0  0  0
  4  5  2  0  0  0  0
  5  9  1  0  0  0  0
M  END
$$$$
﻿Thiazole
 OpenBabel06142111263D
288-47-1 Copyright (C) 2021 ACS
  8  8  0  0  0  0  0  0  0  0999 V2000
    1.2788    0.7597   -0.0083 C   0  0  0  0  0  0  0  0  0  0  0  0
   -0.0068    1.2569    0.0007 C   0  0  0  0  0  0  0  0  0  0  0  0
    1.3888   -0.6177   -0.0131 N   0  0  0  0  0  0  0  0  0  0  0  0
   -1.1281   -0.0409    0.0023 S   0  0  0  0  0  0  0  0  0  0  0  0
    0.1848   -1.1465   -0.0085 C   0  0  0  0  0  0  0  0  0  0  0  0
    2.1793    1.3625   -0.0117 H   0  0  0  0  0  0  0  0  0  0  0  0
   -0.3283    2.2881    0.0062 H   0  0  0  0  0  0  0  0  0  0  0  0
    0.0241   -2.2163   -0.0115 H   0  0  0  0  0  0  0  0  0  0  0  0
  1  2  2  0  0  0  0
  1  3  1  0  0  0  0
  1  6  1  0  0  0  0
  2  4  1  0  0  0  0
  2  7  1  0  0  0  0
  3  5  2  0  0  0  0
  4  5  1  0  0  0  0
  5  8  1  0  0  0  0
M  END
$$$$
﻿Pyridazine
 OpenBabel06142111273D
289-80-5 Copyright (C) 2021 ACS
 10 10  0  0  0  0  0  0  0  0999 V2000
    1.2110   -0.7957   -0.0054 C   0  0  0  0  0  0  0  0  0  0  0  0
    1.3270    0.5863    0.0024 C   0  0  0  0  0  0  0  0  0  0  0  0
   -0.0585   -1.3405   -0.0016 C   0  0  0  0  0  0  0  0  0  0  0  0
    0.1659    1.3346    0.0107 C   0  0  0  0  0  0  0  0  0  0  0  0
   -1.1747   -0.5830    0.0071 N   0  0  0  0  0  0  0  0  0  0  0  0
   -1.0607    0.7736    0.0118 N   0  0  0  0  0  0  0  0  0  0  0  0
    2.0878   -1.4330   -0.0143 H   0  0  0  0  0  0  0  0  0  0  0  0
    2.2973    1.0688    0.0033 H   0  0  0  0  0  0  0  0  0  0  0  0
   -0.2235   -2.4115   -0.0036 H   0  0  0  0  0  0  0  0  0  0  0  0
    0.1813    2.4182    0.0166 H   0  0  0  0  0  0  0  0  0  0  0  0
  1  2  1  0  0  0  0
  1  3  2  0  0  0  0
  1  7  1  0  0  0  0
  2  4  2  0  0  0  0
  2  8  1  0  0  0  0
  3  5  1  0  0  0  0
  3  9  1  0  0  0  0
  4  6  1  0  0  0  0
  4 10  1  0  0  0  0
  5  6  2  0  0  0  0
M  END
$$$$
﻿Pyrimidine
 OpenBabel06142111273D
289-95-2 Copyright (C) 2021 ACS
 10 10  0  0  0  0  0  0  0  0999 V2000
   -0.0968   -1.4254    0.0006 C   0  0  0  0  0  0  0  0  0  0  0  0
    1.1132   -0.7707    0.0129 C   0  0  0  0  0  0  0  0  0  0  0  0
   -1.2104   -0.6176   -0.0125 C   0  0  0  0  0  0  0  0  0  0  0  0
    1.2336    0.5700    0.0138 N   0  0  0  0  0  0  0  0  0  0  0  0
   -1.1539    0.7273   -0.0121 N   0  0  0  0  0  0  0  0  0  0  0  0
    0.0799    1.2561    0.0015 C   0  0  0  0  0  0  0  0  0  0  0  0
   -0.1678   -2.5036    0.0008 H   0  0  0  0  0  0  0  0  0  0  0  0
    2.0497   -1.3206    0.0228 H   0  0  0  0  0  0  0  0  0  0  0  0
   -2.2110   -1.0399   -0.0236 H   0  0  0  0  0  0  0  0  0  0  0  0
    0.1511    2.3381    0.0028 H   0  0  0  0  0  0  0  0  0  0  0  0
  1  2  1  0  0  0  0
  1  3  2  0  0  0  0
  1  7  1  0  0  0  0
  2  4  2  0  0  0  0
  2  8  1  0  0  0  0
  3  5  1  0  0  0  0
  3  9  1  0  0  0  0
  4  6  1  0  0  0  0
  5  6  2  0  0  0  0
  6 10  1  0  0  0  0
M  END
$$$$
﻿Pyrazine
 OpenBabel06142111273D
290-37-9 Copyright (C) 2021 ACS
 10 10  0  0  0  0  0  0  0  0999 V2000
   -0.7674   -1.0952    0.0028 C   0  0  0  0  0  0  0  0  0  0  0  0
    0.6149   -1.1857    0.0019 C   0  0  0  0  0  0  0  0  0  0  0  0
   -1.4165    0.0917    0.0039 N   0  0  0  0  0  0  0  0  0  0  0  0
    1.4131   -0.0937    0.0005 N   0  0  0  0  0  0  0  0  0  0  0  0
   -0.6182    1.1838    0.0033 C   0  0  0  0  0  0  0  0  0  0  0  0
    0.7642    1.0932    0.0009 C   0  0  0  0  0  0  0  0  0  0  0  0
   -1.3933   -1.9800    0.0028 H   0  0  0  0  0  0  0  0  0  0  0  0
    1.1200   -2.1447    0.0022 H   0  0  0  0  0  0  0  0  0  0  0  0
   -1.1234    2.1427    0.0048 H   0  0  0  0  0  0  0  0  0  0  0  0
    1.3901    1.9780   -0.0006 H   0  0  0  0  0  0  0  0  0  0  0  0
  1  2  1  0  0  0  0
  1  3  2  0  0  0  0
  1  7  1  0  0  0  0
  2  4  2  0  0  0  0
  2  8  1  0  0  0  0
  3  5  1  0  0  0  0
  4  6  1  0  0  0  0
  5  6  2  0  0  0  0
  5  9  1  0  0  0  0
  6 10  1  0  0  0  0
M  END
$$$$
﻿Benzimidazole
 OpenBabel06142111273D
51-17-2 Copyright (C) 2021 ACS
 15 16  0  0  0  0  0  0  0  0999 V2000
   -0.1870   -0.7158    0.0001 C   0  0  0  0  0  0  0  0  0  0  0  0
   -0.2547    0.6736   -0.0008 C   0  0  0  0  0  0  0  0  0  0  0  0
   -1.4989   -1.1166   -0.0084 N   0  0  0  0  0  0  0  0  0  0  0  0
    1.0156   -1.4258    0.0041 C   0  0  0  0  0  0  0  0  0  0  0  0
   -1.5609    1.1010    0.0014 N   0  0  0  0  0  0  0  0  0  0  0  0
    0.9336    1.4170   -0.0056 C   0  0  0  0  0  0  0  0  0  0  0  0
   -2.2813    0.0033   -0.0045 C   0  0  0  0  0  0  0  0  0  0  0  0
    2.1917   -0.6660   -0.0036 C   0  0  0  0  0  0  0  0  0  0  0  0
    2.1550    0.7309   -0.0120 C   0  0  0  0  0  0  0  0  0  0  0  0
   -1.8280   -2.0704   -0.0212 H   0  0  0  0  0  0  0  0  0  0  0  0
    1.0456   -2.5095    0.0105 H   0  0  0  0  0  0  0  0  0  0  0  0
    0.8968    2.5005   -0.0079 H   0  0  0  0  0  0  0  0  0  0  0  0
   -3.3622   -0.0443   -0.0062 H   0  0  0  0  0  0  0  0  0  0  0  0
    3.1541   -1.1741   -0.0043 H   0  0  0  0  0  0  0  0  0  0  0  0
    3.0843    1.2955   -0.0238 H   0  0  0  0  0  0  0  0  0  0  0  0
  1  2  1  0  0  0  0
  1  3  1  0  0  0  0
  1  4  2  0  0  0  0
  2  5  1  0  0  0  0
  2  6  2  0  0  0  0
  3  7  1  0  0  0  0
  3 10  1  0  0  0  0
  4  8  1  0  0  0  0
  4 11  1  0  0  0  0
  5  7  2  0  0  0  0
  6  9  1  0  0  0  0
  6 12  1  0  0  0  0
  7 13  1  0  0  0  0
  8  9  2  0  0  0  0
  8 14  1  0  0  0  0
  9 15  1  0  0  0  0
M  END
$$$$
﻿Aniline
 OpenBabel06142111273D
62-53-3 Copyright (C) 2021 ACS
 14 14  0  0  0  0  0  0  0  0999 V2000
    2.3478   -0.0034   -0.1850 N   0  0  0  0  0  0  0  0  0  0  0  0
    0.2474    1.2004   -0.0232 C   0  0  0  0  0  0  0  0  0  0  0  0
    0.9600   -0.0016    0.0019 C   0  0  0  0  0  0  0  0  0  0  0  0
   -1.1492    1.2043    0.0175 C   0  0  0  0  0  0  0  0  0  0  0  0
    0.2458   -1.2030   -0.0247 C   0  0  0  0  0  0  0  0  0  0  0  0
   -1.8495    0.0002    0.0422 C   0  0  0  0  0  0  0  0  0  0  0  0
   -1.1512   -1.2046    0.0156 C   0  0  0  0  0  0  0  0  0  0  0  0
    2.8041   -0.8471    0.1461 H   0  0  0  0  0  0  0  0  0  0  0  0
    2.8052    0.8393    0.1487 H   0  0  0  0  0  0  0  0  0  0  0  0
    0.7760    2.1479   -0.0775 H   0  0  0  0  0  0  0  0  0  0  0  0
   -1.6889    2.1474    0.0118 H   0  0  0  0  0  0  0  0  0  0  0  0
    0.7730   -2.1509   -0.0801 H   0  0  0  0  0  0  0  0  0  0  0  0
   -2.9355    0.0009    0.0600 H   0  0  0  0  0  0  0  0  0  0  0  0
   -1.6919   -2.1472    0.0077 H   0  0  0  0  0  0  0  0  0  0  0  0
  1  3  1  0  0  0  0
  1  8  1  0  0  0  0
  1  9  1  0  0  0  0
  2  3  2  0  0  0  0
  2  4  1  0  0  0  0
  2 10  1  0  0  0  0
  3  5  1  0  0  0  0
  4  6  2  0  0  0  0
  4 11  1  0  0  0  0
  5  7  2  0  0  0  0
  5 12  1  0  0  0  0
  6  7  1  0  0  0  0
  6 13  1  0  0  0  0
  7 14  1  0  0  0  0
M  END
$$$$
﻿Naphthalene
 OpenBabel06142111273D
91-20-3 Copyright (C) 2021 ACS
 18 19  0  0  0  0  0  0  0  0999 V2000
   -0.0006   -0.7059    0.0068 C   0  0  0  0  0  0  0  0  0  0  0  0
    0.0001    0.7078    0.0084 C   0  0  0  0  0  0  0  0  0  0  0  0
    1.2249   -1.3930   -0.0000 C   0  0  0  0  0  0  0  0  0  0  0  0
   -1.2262   -1.3919    0.0081 C   0  0  0  0  0  0  0  0  0  0  0  0
   -1.2246    1.3955    0.0032 C   0  0  0  0  0  0  0  0  0  0  0  0
    1.2251    1.3947    0.0088 C   0  0  0  0  0  0  0  0  0  0  0  0
    2.4338   -0.6949   -0.0107 C   0  0  0  0  0  0  0  0  0  0  0  0
   -2.4348   -0.6931    0.0000 C   0  0  0  0  0  0  0  0  0  0  0  0
   -2.4339    0.6985   -0.0045 C   0  0  0  0  0  0  0  0  0  0  0  0
    2.4338    0.6970   -0.0040 C   0  0  0  0  0  0  0  0  0  0  0  0
    1.2451   -2.4801   -0.0029 H   0  0  0  0  0  0  0  0  0  0  0  0
   -1.2473   -2.4791    0.0109 H   0  0  0  0  0  0  0  0  0  0  0  0
   -1.2439    2.4828    0.0002 H   0  0  0  0  0  0  0  0  0  0  0  0
    1.2453    2.4819    0.0156 H   0  0  0  0  0  0  0  0  0  0  0  0
    3.3745   -1.2391   -0.0254 H   0  0  0  0  0  0  0  0  0  0  0  0
   -3.3758   -1.2367   -0.0052 H   0  0  0  0  0  0  0  0  0  0  0  0
   -3.3740    1.2437   -0.0155 H   0  0  0  0  0  0  0  0  0  0  0  0
    3.3745    1.2413   -0.0112 H   0  0  0  0  0  0  0  0  0  0  0  0
  1  2  2  0  0  0  0
  1  3  1  0  0  0  0
  1  4  1  0  0  0  0
  2  5  1  0  0  0  0
  2  6  1  0  0  0  0
  3  7  2  0  0  0  0
  3 11  1  0  0  0  0
  4  8  2  0  0  0  0
  4 12  1  0  0  0  0
  5  9  2  0  0  0  0
  5 13  1  0  0  0  0
  6 10  2  0  0  0  0
  6 14  1  0  0  0  0
  7 10  1  0  0  0  0
  7 15  1  0  0  0  0
  8  9  1  0  0  0  0
  8 16  1  0  0  0  0
  9 17  1  0  0  0  0
 10 18  1  0  0  0  0
M  END
$$$$
﻿Benzo[b]thiophene
 OpenBabel06142111273D
95-15-8 Copyright (C) 2021 ACS
 15 16  0  0  0  0  0  0  0  0999 V2000
   -0.2245   -0.8978   -0.0013 C   0  0  0  0  0  0  0  0  0  0  0  0
    0.0359    0.4753    0.0029 C   0  0  0  0  0  0  0  0  0  0  0  0
    0.9928   -1.6582    0.0008 C   0  0  0  0  0  0  0  0  0  0  0  0
   -1.5750   -1.3226   -0.0069 C   0  0  0  0  0  0  0  0  0  0  0  0
    1.7303    0.7933    0.0041 S   0  0  0  0  0  0  0  0  0  0  0  0
   -1.0064    1.4230    0.0052 C   0  0  0  0  0  0  0  0  0  0  0  0
    2.1176   -0.8671    0.0009 C   0  0  0  0  0  0  0  0  0  0  0  0
   -2.6125   -0.3852   -0.0067 C   0  0  0  0  0  0  0  0  0  0  0  0
   -2.3291    0.9734    0.0003 C   0  0  0  0  0  0  0  0  0  0  0  0
    1.0319   -2.7404    0.0007 H   0  0  0  0  0  0  0  0  0  0  0  0
   -1.8093   -2.3840   -0.0119 H   0  0  0  0  0  0  0  0  0  0  0  0
   -0.7868    2.4866    0.0101 H   0  0  0  0  0  0  0  0  0  0  0  0
    3.1507   -1.1859   -0.0003 H   0  0  0  0  0  0  0  0  0  0  0  0
   -3.6454   -0.7249   -0.0121 H   0  0  0  0  0  0  0  0  0  0  0  0
   -3.1414    1.6964    0.0016 H   0  0  0  0  0  0  0  0  0  0  0  0
  1  2  1  0  0  0  0
  1  3  1  0  0  0  0
  1  4  2  0  0  0  0
  2  5  1  0  0  0  0
  2  6  2  0  0  0  0
  3  7  2  0  0  0  0
  3 10  1  0  0  0  0
  4  8  1  0  0  0  0
  4 11  1  0  0  0  0
  5  7  1  0  0  0  0
  6  9  1  0  0  0  0
  6 12  1  0  0  0  0
  7 13  1  0  0  0  0
  8  9  2  0  0  0  0
  8 14  1  0  0  0  0
  9 15  1  0  0  0  0
M  END
$$$$
