1H-Pyrrolo[3,2-b]pyridine
 OpenBabel08022110173D
272-49-1 Copyright (C) 2021 ACS
 15 16  0  0  0  0  0  0  0  0999 V2000
   -0.1950    0.6941   -0.0021 C   0  0  0  0  0  0  0  0  0  0  0  0
   -0.2588   -0.6976   -0.0012 C   0  0  0  0  0  0  0  0  0  0  0  0
   -1.5217    1.1848   -0.0015 C   0  0  0  0  0  0  0  0  0  0  0  0
    0.9709    1.3836   -0.0042 N   0  0  0  0  0  0  0  0  0  0  0  0
   -1.5910   -1.0377   -0.0015 N   0  0  0  0  0  0  0  0  0  0  0  0
    0.8974   -1.4775   -0.0007 C   0  0  0  0  0  0  0  0  0  0  0  0
   -2.3661    0.0953   -0.0039 C   0  0  0  0  0  0  0  0  0  0  0  0
    2.0795    0.6129   -0.0063 C   0  0  0  0  0  0  0  0  0  0  0  0
    2.1004   -0.7760   -0.0042 C   0  0  0  0  0  0  0  0  0  0  0  0
   -1.8168    2.2245   -0.0017 H   0  0  0  0  0  0  0  0  0  0  0  0
   -1.9438   -1.9850   -0.0020 H   0  0  0  0  0  0  0  0  0  0  0  0
    0.8669   -2.5605    0.0007 H   0  0  0  0  0  0  0  0  0  0  0  0
   -3.4460    0.0291   -0.0067 H   0  0  0  0  0  0  0  0  0  0  0  0
    3.0129    1.1711   -0.0104 H   0  0  0  0  0  0  0  0  0  0  0  0
    3.0474   -1.3057   -0.0058 H   0  0  0  0  0  0  0  0  0  0  0  0
  1  2  1  0  0  0  0
  1  3  1  0  0  0  0
  1  4  2  0  0  0  0
  2  5  1  0  0  0  0
  2  6  2  0  0  0  0
  3  7  2  0  0  0  0
  3 10  1  0  0  0  0
  4  8  1  0  0  0  0
  5  7  1  0  0  0  0
  5 11  1  0  0  0  0
  6  9  1  0  0  0  0
  6 12  1  0  0  0  0
  7 13  1  0  0  0  0
  8  9  2  0  0  0  0
  8 14  1  0  0  0  0
  9 15  1  0  0  0  0
M  END
$$$$
