Pyridine
 OpenBabel08022110173D
110-86-1 Copyright (C) 2021 ACS
 11 11  0  0  0  0  0  0  0  0999 V2000
    1.4377    0.0527   -0.0005 C   0  0  0  0  0  0  0  0  0  0  0  0
    0.6919    1.2267    0.0010 C   0  0  0  0  0  0  0  0  0  0  0  0
    0.7792   -1.1726    0.0012 C   0  0  0  0  0  0  0  0  0  0  0  0
   -0.6903    1.1254    0.0032 C   0  0  0  0  0  0  0  0  0  0  0  0
   -0.6067   -1.1720    0.0053 C   0  0  0  0  0  0  0  0  0  0  0  0
   -1.3576   -0.0490    0.0057 N   0  0  0  0  0  0  0  0  0  0  0  0
    2.5232    0.0921   -0.0030 H   0  0  0  0  0  0  0  0  0  0  0  0
    1.1749    2.1972    0.0002 H   0  0  0  0  0  0  0  0  0  0  0  0
    1.3313   -2.1053   -0.0003 H   0  0  0  0  0  0  0  0  0  0  0  0
   -1.3163    2.0130    0.0027 H   0  0  0  0  0  0  0  0  0  0  0  0
   -1.1666   -2.1026    0.0083 H   0  0  0  0  0  0  0  0  0  0  0  0
  1  2  1  0  0  0  0
  1  3  2  0  0  0  0
  1  7  1  0  0  0  0
  2  4  2  0  0  0  0
  2  8  1  0  0  0  0
  3  5  1  0  0  0  0
  3  9  1  0  0  0  0
  4  6  1  0  0  0  0
  4 10  1  0  0  0  0
  5  6  2  0  0  0  0
  5 11  1  0  0  0  0
M  END
$$$$
