Thiophene
 OpenBabel08022110173D
110-02-1 Copyright (C) 2021 ACS
  9  9  0  0  0  0  0  0  0  0999 V2000
    1.3871    0.7170    0.0024 C   0  0  0  0  0  0  0  0  0  0  0  0
    1.3913   -0.7081    0.0024 C   0  0  0  0  0  0  0  0  0  0  0  0
    0.1083    1.2299   -0.0039 C   0  0  0  0  0  0  0  0  0  0  0  0
    0.1157   -1.2284   -0.0048 C   0  0  0  0  0  0  0  0  0  0  0  0
   -1.0791   -0.0027   -0.0084 S   0  0  0  0  0  0  0  0  0  0  0  0
    2.2765    1.3351    0.0063 H   0  0  0  0  0  0  0  0  0  0  0  0
    2.2843   -1.3210    0.0062 H   0  0  0  0  0  0  0  0  0  0  0  0
   -0.1889    2.2695   -0.0062 H   0  0  0  0  0  0  0  0  0  0  0  0
   -0.1756   -2.2698   -0.0076 H   0  0  0  0  0  0  0  0  0  0  0  0
  1  2  1  0  0  0  0
  1  3  2  0  0  0  0
  1  6  1  0  0  0  0
  2  4  2  0  0  0  0
  2  7  1  0  0  0  0
  3  5  1  0  0  0  0
  3  8  1  0  0  0  0
  4  5  1  0  0  0  0
  4  9  1  0  0  0  0
M  END
$$$$
