Purine
 OpenBabel08022110173D
120-73-0 Copyright (C) 2021 ACS
 13 14  0  0  0  0  0  0  0  0999 V2000
   -0.2246   -0.7503   -0.0030 C   0  0  0  0  0  0  0  0  0  0  0  0
   -0.2718    0.6328   -0.0042 C   0  0  0  0  0  0  0  0  0  0  0  0
   -1.5331   -1.1436   -0.0095 N   0  0  0  0  0  0  0  0  0  0  0  0
    0.9867   -1.4030    0.0004 C   0  0  0  0  0  0  0  0  0  0  0  0
   -1.5662    1.0780   -0.0116 N   0  0  0  0  0  0  0  0  0  0  0  0
    0.8256    1.4102   -0.0034 N   0  0  0  0  0  0  0  0  0  0  0  0
   -2.3017   -0.0109   -0.0195 C   0  0  0  0  0  0  0  0  0  0  0  0
    2.1033   -0.6462   -0.0022 N   0  0  0  0  0  0  0  0  0  0  0  0
    1.9611    0.6985   -0.0052 C   0  0  0  0  0  0  0  0  0  0  0  0
   -1.8779   -2.0933   -0.0135 H   0  0  0  0  0  0  0  0  0  0  0  0
    1.1069   -2.4783    0.0014 H   0  0  0  0  0  0  0  0  0  0  0  0
   -3.3836   -0.0433   -0.0338 H   0  0  0  0  0  0  0  0  0  0  0  0
    2.8829    1.2728   -0.0117 H   0  0  0  0  0  0  0  0  0  0  0  0
  1  2  1  0  0  0  0
  1  3  1  0  0  0  0
  1  4  2  0  0  0  0
  2  5  1  0  0  0  0
  2  6  2  0  0  0  0
  3  7  1  0  0  0  0
  3 10  1  0  0  0  0
  4  8  1  0  0  0  0
  4 11  1  0  0  0  0
  5  7  2  0  0  0  0
  6  9  1  0  0  0  0
  7 12  1  0  0  0  0
  8  9  2  0  0  0  0
  9 13  1  0  0  0  0
M  END
$$$$
