Thiazole
 OpenBabel08022110173D
288-47-1 Copyright (C) 2021 ACS
  8  8  0  0  0  0  0  0  0  0999 V2000
    1.2788    0.7597   -0.0083 C   0  0  0  0  0  0  0  0  0  0  0  0
   -0.0068    1.2569    0.0007 C   0  0  0  0  0  0  0  0  0  0  0  0
    1.3888   -0.6177   -0.0131 N   0  0  0  0  0  0  0  0  0  0  0  0
   -1.1281   -0.0409    0.0023 S   0  0  0  0  0  0  0  0  0  0  0  0
    0.1848   -1.1465   -0.0085 C   0  0  0  0  0  0  0  0  0  0  0  0
    2.1793    1.3625   -0.0117 H   0  0  0  0  0  0  0  0  0  0  0  0
   -0.3283    2.2881    0.0062 H   0  0  0  0  0  0  0  0  0  0  0  0
    0.0241   -2.2163   -0.0115 H   0  0  0  0  0  0  0  0  0  0  0  0
  1  2  2  0  0  0  0
  1  3  1  0  0  0  0
  1  6  1  0  0  0  0
  2  4  1  0  0  0  0
  2  7  1  0  0  0  0
  3  5  2  0  0  0  0
  4  5  1  0  0  0  0
  5  8  1  0  0  0  0
M  END
$$$$
