Naphthalene
 OpenBabel08022110173D
91-20-3 Copyright (C) 2021 ACS
 18 19  0  0  0  0  0  0  0  0999 V2000
   -0.0006   -0.7059    0.0068 C   0  0  0  0  0  0  0  0  0  0  0  0
    0.0001    0.7078    0.0084 C   0  0  0  0  0  0  0  0  0  0  0  0
    1.2249   -1.3930   -0.0000 C   0  0  0  0  0  0  0  0  0  0  0  0
   -1.2262   -1.3919    0.0081 C   0  0  0  0  0  0  0  0  0  0  0  0
   -1.2246    1.3955    0.0032 C   0  0  0  0  0  0  0  0  0  0  0  0
    1.2251    1.3947    0.0088 C   0  0  0  0  0  0  0  0  0  0  0  0
    2.4338   -0.6949   -0.0107 C   0  0  0  0  0  0  0  0  0  0  0  0
   -2.4348   -0.6931    0.0000 C   0  0  0  0  0  0  0  0  0  0  0  0
   -2.4339    0.6985   -0.0045 C   0  0  0  0  0  0  0  0  0  0  0  0
    2.4338    0.6970   -0.0040 C   0  0  0  0  0  0  0  0  0  0  0  0
    1.2451   -2.4801   -0.0029 H   0  0  0  0  0  0  0  0  0  0  0  0
   -1.2473   -2.4791    0.0109 H   0  0  0  0  0  0  0  0  0  0  0  0
   -1.2439    2.4828    0.0002 H   0  0  0  0  0  0  0  0  0  0  0  0
    1.2453    2.4819    0.0156 H   0  0  0  0  0  0  0  0  0  0  0  0
    3.3745   -1.2391   -0.0254 H   0  0  0  0  0  0  0  0  0  0  0  0
   -3.3758   -1.2367   -0.0052 H   0  0  0  0  0  0  0  0  0  0  0  0
   -3.3740    1.2437   -0.0155 H   0  0  0  0  0  0  0  0  0  0  0  0
    3.3745    1.2413   -0.0112 H   0  0  0  0  0  0  0  0  0  0  0  0
  1  2  2  0  0  0  0
  1  3  1  0  0  0  0
  1  4  1  0  0  0  0
  2  5  1  0  0  0  0
  2  6  1  0  0  0  0
  3  7  2  0  0  0  0
  3 11  1  0  0  0  0
  4  8  2  0  0  0  0
  4 12  1  0  0  0  0
  5  9  2  0  0  0  0
  5 13  1  0  0  0  0
  6 10  2  0  0  0  0
  6 14  1  0  0  0  0
  7 10  1  0  0  0  0
  7 15  1  0  0  0  0
  8  9  1  0  0  0  0
  8 16  1  0  0  0  0
  9 17  1  0  0  0  0
 10 18  1  0  0  0  0
M  END
$$$$
