Anthracene
 OpenBabel08022110173D
120-12-7 Copyright (C) 2021 ACS
 24 26  0  0  0  0  0  0  0  0999 V2000
    1.2252   -0.7052   -0.0020 C   0  0  0  0  0  0  0  0  0  0  0  0
    1.2269    0.7063   -0.0006 C   0  0  0  0  0  0  0  0  0  0  0  0
    0.0005   -1.3920    0.0025 C   0  0  0  0  0  0  0  0  0  0  0  0
    2.4496   -1.3936   -0.0087 C   0  0  0  0  0  0  0  0  0  0  0  0
    0.0019    1.3945    0.0011 C   0  0  0  0  0  0  0  0  0  0  0  0
    2.4530    1.3908    0.0010 C   0  0  0  0  0  0  0  0  0  0  0  0
   -1.2238   -0.7037    0.0034 C   0  0  0  0  0  0  0  0  0  0  0  0
    3.6596   -0.6991   -0.0023 C   0  0  0  0  0  0  0  0  0  0  0  0
   -1.2240    0.7081    0.0014 C   0  0  0  0  0  0  0  0  0  0  0  0
    3.6615    0.6926    0.0050 C   0  0  0  0  0  0  0  0  0  0  0  0
   -2.4492   -1.3909    0.0038 C   0  0  0  0  0  0  0  0  0  0  0  0
   -2.4495    1.3948   -0.0001 C   0  0  0  0  0  0  0  0  0  0  0  0
   -3.6589   -0.6946   -0.0002 C   0  0  0  0  0  0  0  0  0  0  0  0
   -3.6588    0.6976   -0.0032 C   0  0  0  0  0  0  0  0  0  0  0  0
   -0.0008   -2.4801    0.0073 H   0  0  0  0  0  0  0  0  0  0  0  0
    2.4683   -2.4814   -0.0188 H   0  0  0  0  0  0  0  0  0  0  0  0
    0.0028    2.4830    0.0021 H   0  0  0  0  0  0  0  0  0  0  0  0
    2.4754    2.4788    0.0000 H   0  0  0  0  0  0  0  0  0  0  0  0
    4.5993   -1.2451   -0.0026 H   0  0  0  0  0  0  0  0  0  0  0  0
    4.6029    1.2356    0.0134 H   0  0  0  0  0  0  0  0  0  0  0  0
   -2.4697   -2.4778    0.0062 H   0  0  0  0  0  0  0  0  0  0  0  0
   -2.4703    2.4817   -0.0014 H   0  0  0  0  0  0  0  0  0  0  0  0
   -4.5990   -1.2390   -0.0027 H   0  0  0  0  0  0  0  0  0  0  0  0
   -4.5997    1.2420   -0.0077 H   0  0  0  0  0  0  0  0  0  0  0  0
  1  2  2  0  0  0  0
  1  3  1  0  0  0  0
  1  4  1  0  0  0  0
  2  5  1  0  0  0  0
  2  6  1  0  0  0  0
  3  7  2  0  0  0  0
  3 15  1  0  0  0  0
  4  8  2  0  0  0  0
  4 16  1  0  0  0  0
  5  9  2  0  0  0  0
  5 17  1  0  0  0  0
  6 10  2  0  0  0  0
  6 18  1  0  0  0  0
  7  9  1  0  0  0  0
  7 11  1  0  0  0  0
  8 10  1  0  0  0  0
  8 19  1  0  0  0  0
  9 12  1  0  0  0  0
 10 20  1  0  0  0  0
 11 13  2  0  0  0  0
 11 21  1  0  0  0  0
 12 14  2  0  0  0  0
 12 22  1  0  0  0  0
 13 14  1  0  0  0  0
 13 23  1  0  0  0  0
 14 24  1  0  0  0  0
M  END
$$$$
