Imidazole
 OpenBabel08022110173D
288-32-4 Copyright (C) 2021 ACS
  9  9  0  0  0  0  0  0  0  0999 V2000
    0.9504   -0.7647    0.0029 C   0  0  0  0  0  0  0  0  0  0  0  0
   -0.3850   -1.0914    0.0000 C   0  0  0  0  0  0  0  0  0  0  0  0
    0.9806    0.6023    0.0027 N   0  0  0  0  0  0  0  0  0  0  0  0
   -1.1608    0.0390    0.0009 N   0  0  0  0  0  0  0  0  0  0  0  0
   -0.3127    1.0414    0.0037 C   0  0  0  0  0  0  0  0  0  0  0  0
    1.8485   -1.3650    0.0047 H   0  0  0  0  0  0  0  0  0  0  0  0
   -0.8295   -2.0783   -0.0019 H   0  0  0  0  0  0  0  0  0  0  0  0
    1.8048    1.1874    0.0026 H   0  0  0  0  0  0  0  0  0  0  0  0
   -0.5718    2.0918    0.0062 H   0  0  0  0  0  0  0  0  0  0  0  0
  1  2  2  0  0  0  0
  1  3  1  0  0  0  0
  1  6  1  0  0  0  0
  2  4  1  0  0  0  0
  2  7  1  0  0  0  0
  3  5  1  0  0  0  0
  3  8  1  0  0  0  0
  4  5  2  0  0  0  0
  5  9  1  0  0  0  0
M  END
$$$$
